# CaTiO3_2x2x2-supercell_0_0_0_tilt

data_3D
_audit_creation_date            2022-05-03
_audit_creation_method          P_cif.py

_symmetry_space_group_name_H-M  'P1'
_symmetry_Int_Tables_number     1
_symmetry_cell_setting          triclinic

_cell_length_a                  7.58057
_cell_length_b                  7.59194
_cell_length_c                  7.59194
_cell_angle_alpha               90
_cell_angle_beta                90
_cell_angle_gamma               90

loop_
  _atom_site_label
  _atom_site_type_symbol
  _atom_site_fract_x
  _atom_site_fract_y
  _atom_site_fract_z
  _atom_site_U_iso_or_equiv
  _atom_site_adp_type
  _atom_site_occupancy
  Ca1   Ca     0.250000    0.259356    0.269928    0.000682 Uiso  1.0000
  Ca2   Ca     0.250000    0.269928    0.759356    0.000682 Uiso  1.0000
  Ca3   Ca     0.250000    0.769928    0.259356    0.000682 Uiso  1.0000
  Ca4   Ca     0.250000    0.759356    0.769928    0.000682 Uiso  1.0000
  Ca5   Ca     0.750000    0.240644    0.230072    0.000682 Uiso  1.0000
  Ca6   Ca     0.750000    0.230072    0.740644    0.000682 Uiso  1.0000
  Ca7   Ca     0.750000    0.730072    0.240644    0.000682 Uiso  1.0000
  Ca8   Ca     0.750000    0.740644    0.730072    0.000682 Uiso  1.0000
  Ti1   Ti     0.000000    0.000000    0.000000    0.000004 Uiso  1.0000
  Ti2   Ti     0.000000    0.000000    0.500000    0.000004 Uiso  1.0000
  Ti3   Ti     0.000000    0.500000    0.000000    0.000004 Uiso  1.0000
  Ti4   Ti     0.000000    0.500000    0.500000    0.000004 Uiso  1.0000
  Ti5   Ti     0.500000    0.000000    0.000000    0.000004 Uiso  1.0000
  Ti6   Ti     0.500000    0.000000    0.500000    0.000004 Uiso  1.0000
  Ti7   Ti     0.500000    0.500000    0.000000    0.000004 Uiso  1.0000
  Ti8   Ti     0.500000    0.500000    0.500000    0.000004 Uiso  1.0000
  O1    O      0.250000   -0.042776    0.042776    0.000002 Uiso  1.0000
  O2    O      0.250000    0.042776    0.457224    0.000002 Uiso  1.0000
  O3    O      0.250000    0.542776   -0.042776    0.000002 Uiso  1.0000
  O4    O      0.250000    0.457224    0.542776    0.000002 Uiso  1.0000
  O5    O      0.750000    0.042776   -0.042776    0.000002 Uiso  1.0000
  O6    O      0.750000   -0.042776    0.542776    0.000002 Uiso  1.0000
  O7    O      0.750000    0.457224    0.042776    0.000002 Uiso  1.0000
  O8    O      0.750000    0.542776    0.457224    0.000002 Uiso  1.0000
  O9    O      0.042776    0.250000    0.040600    0.000002 Uiso  1.0000
  O10   O     -0.042776    0.250000    0.459400    0.000002 Uiso  1.0000
  O11   O     -0.042776    0.750000   -0.040600    0.000002 Uiso  1.0000
  O12   O      0.042776    0.750000    0.540600    0.000002 Uiso  1.0000
  O13   O      0.457224    0.250000    0.040600    0.000002 Uiso  1.0000
  O14   O      0.542776    0.250000    0.459400    0.000002 Uiso  1.0000
  O15   O      0.542776    0.750000   -0.040600    0.000002 Uiso  1.0000
  O16   O      0.457224    0.750000    0.540600    0.000002 Uiso  1.0000
  O17   O     -0.042776   -0.040600    0.250000    0.000002 Uiso  1.0000
  O18   O      0.042776    0.040600    0.750000    0.000002 Uiso  1.0000
  O19   O      0.042776    0.540600    0.250000    0.000002 Uiso  1.0000
  O20   O     -0.042776    0.459400    0.750000    0.000002 Uiso  1.0000
  O21   O      0.542776   -0.040600    0.250000    0.000002 Uiso  1.0000
  O22   O      0.457224    0.040600    0.750000    0.000002 Uiso  1.0000
  O23   O      0.457224    0.540600    0.250000    0.000002 Uiso  1.0000
  O24   O      0.542776    0.459400    0.750000    0.000002 Uiso  1.0000
