
#======================================================================
# CRYSTAL DATA
#----------------------------------------------------------------------
data_VESTA_phase_1

_chemical_name_common                  'CaTiO3'
_cell_length_a                         7.573662
_cell_length_b                         7.595946
_cell_length_c                         7.595946
_cell_angle_alpha                      90.000000
_cell_angle_beta                       90.000000
_cell_angle_gamma                      90.000000
_cell_volume                           436.988116
_space_group_name_H-M_alt              'P 1'
_space_group_IT_number                 1

loop_
_space_group_symop_operation_xyz
   'x, y, z'

loop_
   _atom_site_label
   _atom_site_occupancy
   _atom_site_fract_x
   _atom_site_fract_y
   _atom_site_fract_z
   _atom_site_adp_type
   _atom_site_B_iso_or_equiv
   _atom_site_type_symbol
   Ca1        1.0     0.250000     0.260000     0.270000    Biso  0.003049 Ca
   Ca2        1.0     0.250000     0.270000     0.760000    Biso  0.003049 Ca
   Ca3        1.0     0.250000     0.770000     0.260000    Biso  0.003049 Ca
   Ca4        1.0     0.250000     0.760000     0.770000    Biso  0.003049 Ca
   Ca5        1.0     0.750000     0.240000     0.230000    Biso  0.003049 Ca
   Ca6        1.0     0.750000     0.230000     0.740000    Biso  0.003049 Ca
   Ca7        1.0     0.750000     0.730000     0.240000    Biso  0.003049 Ca
   Ca8        1.0     0.750000     0.740000     0.730000    Biso  0.003049 Ca
   Ti1        1.0     0.000000     0.000000     0.000000    Biso  0.004560 Ti
   Ti2        1.0     0.000000     0.000000     0.500000    Biso  0.004560 Ti
   Ti3        1.0     0.000000     0.500000     0.000000    Biso  0.004560 Ti
   Ti4        1.0     0.000000     0.500000     0.500000    Biso  0.004560 Ti
   Ti5        1.0     0.500000     0.000000     0.000000    Biso  0.004560 Ti
   Ti6        1.0     0.500000     0.000000     0.500000    Biso  0.004560 Ti
   Ti7        1.0     0.500000     0.500000     0.000000    Biso  0.004560 Ti
   Ti8        1.0     0.500000     0.500000     0.500000    Biso  0.004560 Ti
   O1_1       1.0     0.250000     0.043412    -0.043412    Biso  0.010970 O
   O1_2       1.0     0.250000    -0.043412     0.543412    Biso  0.010970 O
   O1_3       1.0     0.250000     0.456588     0.043412    Biso  0.010970 O
   O1_4       1.0     0.250000     0.543412     0.456588    Biso  0.010970 O
   O1_5       1.0     0.750000    -0.043412     0.043412    Biso  0.010970 O
   O1_6       1.0     0.750000     0.043412     0.456588    Biso  0.010970 O
   O1_7       1.0     0.750000     0.543412    -0.043412    Biso  0.010970 O
   O1_8       1.0     0.750000     0.456588     0.543412    Biso  0.010970 O
   O2_1       1.0    -0.043412     0.250000     0.039109    Biso  0.010970 O
   O2_2       1.0     0.043412     0.250000     0.460891    Biso  0.010970 O
   O2_3       1.0     0.043412     0.750000    -0.039109    Biso  0.010970 O
   O2_4       1.0    -0.043412     0.750000     0.539109    Biso  0.010970 O
   O2_5       1.0     0.543412     0.250000     0.039109    Biso  0.010970 O
   O2_6       1.0     0.456588     0.250000     0.460891    Biso  0.010970 O
   O2_7       1.0     0.456588     0.750000    -0.039109    Biso  0.010970 O
   O2_8       1.0     0.543412     0.750000     0.539109    Biso  0.010970 O
   O3_1       1.0     0.043412    -0.039109     0.250000    Biso  0.010970 O
   O3_2       1.0    -0.043412     0.039109     0.750000    Biso  0.010970 O
   O3_3       1.0    -0.043412     0.539109     0.250000    Biso  0.010970 O
   O3_4       1.0     0.043412     0.460891     0.750000    Biso  0.010970 O
   O3_5       1.0     0.456588    -0.039109     0.250000    Biso  0.010970 O
   O3_6       1.0     0.543412     0.039109     0.750000    Biso  0.010970 O
   O3_7       1.0     0.543412     0.539109     0.250000    Biso  0.010970 O
   O3_8       1.0     0.456588     0.460891     0.750000    Biso  0.010970 O
